7
IS 0 1 DC 0.001
RL 1 0 1000
R1 1 2 20000000
IS2 3 0 DC 0.002
RL2 0 3 500
RX 1 4 10000000
RY 4 3 10000000

RZ 4 6 1000000000
#E1 6 0 1 3 6
Vcurto 2 3 DC 0
F1 0 6 2 3 6e7
RL_G1 6 7 1
RL_G2 7 0 1

R_void_1 7 8 .001
R_void_2 8 7 .002
R_void_3 6 6 .003
R_void_4 4 5 1000
R_void_5 0 0 1000000000

# transiente, passo 1us, de 0 ate 1ms
.TRAN 0.000001 0.001 GEAR4 0
