1
IS 1 0 DC 0.001
RL 1 0 1000
R1 1 2 20000000
IS2 0 2 DC 0.002
RL2 0 2 500
RX 1 3 10000000
RY 3 2 10000000

RZ 3 4 1000000000
# estamos testando com j=3*e1
# depois, testar com j=3*(e1-e2)
G1 4 0 1 0 3
RL_G1 4 5 1
RL_G2 5 0 1

R_void_1 5 6 .01
R_void_2 6 5 .02

# transiente, passo 1us, de 0 ate 1ms
.TRAN 0.000001 0.001 GEAR4 0
