1
IS 1 0 DC 0.001
RL 1 0 1000
R1 1 2 20000000
IS2 0 2 DC 0.002
RL2 0 2 500
RX 1 3 10000000
RY 3 2 10000000

RZ 3 5 1000000000
V1 5 0 DC 12
RL_G1 5 6 1
RL_G2 6 0 1

R_void_1 6 7 .001
R_void_2 7 6 .002
R_void_3 5 5 .003
R_void_4 3 4 1000
R_void_5 0 0 1000000000

# transiente, passo 1us, de 0 ate 1ms
.TRAN 0.000001 0.001 GEAR4 0
