7
IS 0 1 DC 0.001
RL 1 0 1000
R1 1 2 20e6
IS2 3 0 DC 0.002
RL2 0 3 500
RX 1 4 10e6
RY 4 3 10e6

RZ 4 6 1e9
#Vcurto 2 3 DC 0
H1 6 0 2 3 12e7
RL_G1 6 7 1
RL_G2 7 0 1

R_void_1 7 8 .001
R_void_2 8 7 .002
R_void_3 6 6 .003
R_void_4 4 5 1000
R_void_5 0 0 1e9

# transiente, passo 1us, de 0 ate 1ms
.TRAN 0.000001 0.001 GEAR4 0
