1
IS 1 0 DC 0.001
RL 1 0 1000
R1 1 2 1000000
IS2 0 2 DC 0.002
RL2 0 2 500
#RX 1 3 100000
#RY 3 4 100000

# transiente, passo 1us, de 0 ate 1ms
.TRAN 0.000001 0.001 GEAR4 0
