sdfsdf

I1 0 1 PULSE -1 2 1 1 2 5 10 3
RL 1 0 1

.TRAN 50 .1 GEAR3 1
