sdfsdfs

C1 1 0 1 IC=1
R1 1 0 1

.TRAN .001 10 GEAR4 0 UIC
