sgsfgsgsdgfsdfgsgsdfgsg

V1 1 0 DC 3
R1 1 2 2
C1 2 0 1

.TRAN .001 20 GEAR4 0
