teste do diodo

# transformador 120/10
V1 1 0 SIN 0 10 0.2 0 0 0 100
V2 2 0 SIN 0 10 0.2 0 0 180 100

# diodos retificadores
N1 1 3 -10 -1.001e-6 -6e-3 -1e-6 0.6 .1e-3 1 10
N2 2 3 -10 -1.001e-6 -6e-3 -1e-6 0.6 .1e-3 1 10

# filtro capacitivo
Cfiltro 3 0 1000e-6

# carga
RL 3 0 10e3

.TRAN 10 .01 GEAR4 1
