oscilador, frequencia omega=1

C1 1 0 1 IC=0
L1 1 0 1 IC=-1

.TRAN .001 30 GEAR4 0 UIC
