gfgdgfc

N1 1 0 -2 -2 -1 -1 1 -3 4 0

.TRAN 2 1 GEAR 1
