1
IS 1 0 DC 0.001
RL 1 0 1000

# transiente, passo 1us, de 0 ate 1ms
.TRAN 0.000001 0.001 GEAR 0
