2
L2 1 0 1 IC=0.0025
C1 2 0 1 IC=0.0025
I1 0 2 PULSE 0 1 0 1 1 0 2 1000
V2 1 0 PULSE 0 1 0 1 1 0 2 1000
.TRAN 10 10E-2 GEAR2 1 UIC
