sdfsdfs

C1 1 0 1 IC=1
R1 1 0 1

.TRAN 10 .001 GEAR4 1 UIC
