teste do diodo

V1 1 0 DC 1
N1 1 0 -10 -1e-6 -7e-4 -1e-6 0.7 1e-3 1 10

.TRAN .1 50 GEAR3 1
