teste do diodo

# transformador 120/10
V1 1 0 SIN 0 10 60 0 0 0 100
V2 2 0 SIN 0 10 60 0 0 180 100

# diodos retificadores
N1 1 3 -10 -1.001e-6 -6e-3 -1e-6 0.6 .1e-3 1 10
N2 2 3 -10 -1.001e-6 -6e-3 -1e-6 0.6 .1e-3 1 10

# filtro capacitivo
Cfiltro 3 0 500e-6
R1 3 4 100

# zener regulador
Nzener 0 4 -7 -10 -6 1e-3 .6 .1e-3 1 10

# carga
Icarga 4 0 SIN 1.5e-2 1.5e-2 20 0 0 0 100

#para plotar a corrente
#Hauxiliar 6 0 4 5 1

.TRAN .05 .0001 GEAR4 1
