oscilador, frequencia omega=1

C1 1 0 1 IC=0
L1 1 0 1 IC=-1

.TRAN 30 .001 GEAR4 1 UIC
