teste

V1 1 0 SIN 1 1 1 1 0.1 30 7.5

.TRAN 10 .01 GEAR4 1 UIC
